MODEL 1
REMARK VINA RESULT:      -7.9      0.000      0.000
REMARK  6 active torsions:
REMARK  status: ('A' for Active; 'I' for Inactive)
REMARK    1  A    between atoms: C_42  and  O_45 
REMARK    2  A    between atoms: C_43  and  C_46 
REMARK    3  A    between atoms: C_46  and  C_47 
REMARK    4  A    between atoms: C_47  and  C_48 
REMARK    5  A    between atoms: C_47  and  O_54 
REMARK    6  A    between atoms: C_48  and  N_49 
ROOT
HETATM    1  C   UNK     0       9.105   0.463 -22.452  0.00  0.00     0.131 C 
HETATM    2  C   UNK     0       7.875   0.707 -21.573  0.00  0.00     0.053 C 
HETATM    3  C   UNK     0       7.933   1.949 -20.653  0.00  0.00     0.088 C 
HETATM    4  C   UNK     0       8.945   1.891 -19.529  0.00  0.00     0.130 C 
HETATM    5  C   UNK     0       8.479   1.920 -18.094  0.00  0.00     0.110 C 
HETATM    6  C   UNK     0       8.296   3.360 -17.570  0.00  0.00     0.129 C 
HETATM    7  C   UNK     0       9.636   3.957 -17.082  0.00  0.00     0.035 C 
HETATM    8  C   UNK     0       9.427   5.401 -16.614  0.00  0.00     0.037 C 
HETATM    9  C   UNK     0       8.726   6.207 -17.710  0.00  0.00     0.153 C 
HETATM   10  C   UNK     0       7.435   5.463 -18.112  0.00  0.00     0.182 C 
HETATM   11  C   UNK     0       6.723   6.263 -19.200  0.00  0.00     0.188 C 
HETATM   12  C   UNK     0       6.359   7.634 -18.576  0.00  0.00     0.185 C 
HETATM   13  C   UNK     0       7.585   8.329 -18.027  0.00  0.00     0.185 C 
HETATM   14  O   UNK     0       8.488   7.534 -17.244  0.00  0.00    -0.373 OA
HETATM   15  O   UNK     0       7.471   6.207 -20.435  0.00  0.00    -0.344 OA
HETATM   16  C   UNK     0       8.155   7.367 -20.934  0.00  0.00     0.168 C 
HETATM   17  C   UNK     0       7.179   8.429 -21.422  0.00  0.00     0.103 C 
HETATM   18  O   UNK     0       5.791   8.495 -19.527  0.00  0.00    -0.372 OA
HETATM   19  C   UNK     0       6.881   9.144 -20.143  0.00  0.00     0.159 C 
HETATM   20  C   UNK     0       8.139   8.923 -19.293  0.00  0.00     0.185 C 
HETATM   21  C   UNK     0       9.119   6.936 -22.072  0.00  0.00     0.071 C 
HETATM   22  C   UNK     0       8.680   5.740 -22.945  0.00  0.00     0.037 C 
HETATM   23  C   UNK     0       7.322   5.865 -23.664  0.00  0.00     0.126 C 
HETATM   24  C   UNK     0       7.247   7.046 -24.638  0.00  0.00     0.068 C 
HETATM   25  O   UNK     0       7.081   4.656 -24.371  0.00  0.00    -0.376 OA
HETATM   26  C   UNK     0       7.277   4.899 -25.750  0.00  0.00     0.150 C 
HETATM   27  C   UNK     0       6.154   4.205 -26.562  0.00  0.00     0.039 C 
HETATM   28  C   UNK     0       7.294   6.372 -25.935  0.00  0.00    -0.058 C 
HETATM   29  C   UNK     0       6.674   3.053 -27.445  0.00  0.00     0.035 C 
HETATM   30  C   UNK     0       6.997   1.772 -26.653  0.00  0.00     0.123 C 
HETATM   31  O   UNK     0       8.035   2.035 -25.718  0.00  0.00    -0.376 OA
HETATM   32  C   UNK     0       7.425   0.648 -27.628  0.00  0.00     0.040 C 
HETATM   33  C   UNK     0       7.829  -0.622 -26.858  0.00  0.00     0.014 C 
HETATM   34  C   UNK     0       8.799  -0.221 -25.753  0.00  0.00    -0.057 C 
HETATM   35  C   UNK     0       8.265   0.914 -24.884  0.00  0.00     0.153 C 
HETATM   36  C   UNK     0       9.156   1.373 -23.706  0.00  0.00     0.069 C 
HETATM   37  C   UNK     0      10.041  -0.741 -25.629  0.00  0.00     0.017 C 
HETATM   38  O   UNK     0      10.139   1.936 -19.775  0.00  0.00    -0.298 OA
HETATM   39  O   UNK     0       7.730   4.165 -18.595  0.00  0.00    -0.375 OA
HETATM   40  O   UNK     0       8.948   7.977 -19.940  0.00  0.00    -0.344 OA
HETATM   41  C   UNK     0       7.462   6.999 -27.105  0.00  0.00     0.017 C 
HETATM   42  C   UNK     0       7.747  -0.609 -20.852  0.00  0.00     0.156 C 
HETATM   43  C   UNK     0       8.259  -1.599 -21.912  0.00  0.00     0.153 C 
HETATM   44  O   UNK     0       9.122  -0.907 -22.801  0.00  0.00    -0.377 OA
HETATM   45  C   UNK     0       8.339  -1.701 -27.826  0.00  0.00     0.015 C 
ENDROOT
BRANCH  42  46
HETATM   46  O   UNK     0       6.402  -0.837 -20.463  0.00  0.00    -0.388 OA
HETATM   47  C   UNK     0       6.336  -1.094 -19.079  0.00  0.00     0.202 C 
ENDBRANCH  42  46
BRANCH  43  48
HETATM   48  C   UNK     0       7.119  -2.272 -22.712  0.00  0.00     0.068 C 
BRANCH  48  49
HETATM   49  C   UNK     0       7.600  -3.212 -23.841  0.00  0.00     0.146 C 
BRANCH  49  50
HETATM   50  C   UNK     0       8.611  -4.264 -23.345  0.00  0.00     0.261 C 
BRANCH  50  51
HETATM   51  N   UNK     0       9.952  -3.947 -23.825  0.00  0.00    -0.077 N 
HETATM   52  HN3 UNK     0       9.989  -3.029 -24.271  1.00  0.00     0.274 HD
HETATM   53  HN2 UNK     0      10.598  -3.767 -23.057  1.00  0.00     0.274 HD
HETATM   54  HN1 UNK     0      10.292  -4.683 -24.444  1.00  0.00     0.274 HD
ENDBRANCH  50  51
ENDBRANCH  49  50
BRANCH  49  55
HETATM   55  O   UNK     0       6.493  -3.842 -24.437  0.00  0.00    -0.394 OA
HETATM   56  HO  UNK     0       5.714  -3.678 -23.918  1.00  0.00     0.210 HD
ENDBRANCH  49  55
ENDBRANCH  48  49
ENDBRANCH  43  48
TORSDOF 6
ENDMDL
MODEL 2
REMARK VINA RESULT:      -7.5     43.922     49.031
REMARK  6 active torsions:
REMARK  status: ('A' for Active; 'I' for Inactive)
REMARK    1  A    between atoms: C_42  and  O_45 
REMARK    2  A    between atoms: C_43  and  C_46 
REMARK    3  A    between atoms: C_46  and  C_47 
REMARK    4  A    between atoms: C_47  and  C_48 
REMARK    5  A    between atoms: C_47  and  O_54 
REMARK    6  A    between atoms: C_48  and  N_49 
ROOT
HETATM    1  C   UNK     0       6.825   5.279  24.563  0.00  0.00     0.131 C 
HETATM    2  C   UNK     0       5.561   4.591  24.040  0.00  0.00     0.053 C 
HETATM    3  C   UNK     0       5.521   3.051  24.172  0.00  0.00     0.088 C 
HETATM    4  C   UNK     0       6.505   2.288  23.312  0.00  0.00     0.130 C 
HETATM    5  C   UNK     0       6.002   1.347  22.245  0.00  0.00     0.110 C 
HETATM    6  C   UNK     0       5.720  -0.065  22.801  0.00  0.00     0.129 C 
HETATM    7  C   UNK     0       7.008  -0.916  22.857  0.00  0.00     0.035 C 
HETATM    8  C   UNK     0       6.701  -2.294  23.457  0.00  0.00     0.037 C 
HETATM    9  C   UNK     0       5.981  -2.128  24.798  0.00  0.00     0.153 C 
HETATM   10  C   UNK     0       4.748  -1.226  24.580  0.00  0.00     0.182 C 
HETATM   11  C   UNK     0       4.017  -1.061  25.911  0.00  0.00     0.188 C 
HETATM   12  C   UNK     0       3.556  -2.476  26.341  0.00  0.00     0.185 C 
HETATM   13  C   UNK     0       4.724  -3.434  26.415  0.00  0.00     0.185 C 
HETATM   14  O   UNK     0       5.652  -3.414  25.321  0.00  0.00    -0.373 OA
HETATM   15  O   UNK     0       4.799  -0.249  26.815  0.00  0.00    -0.344 OA
HETATM   16  C   UNK     0       5.425  -0.828  27.970  0.00  0.00     0.168 C 
HETATM   17  C   UNK     0       4.400  -1.240  29.018  0.00  0.00     0.103 C 
HETATM   18  O   UNK     0       2.962  -2.456  27.613  0.00  0.00    -0.372 OA
HETATM   19  C   UNK     0       4.027  -2.602  28.526  0.00  0.00     0.159 C 
HETATM   20  C   UNK     0       5.274  -3.076  27.769  0.00  0.00     0.185 C 
HETATM   21  C   UNK     0       6.442   0.186  28.559  0.00  0.00     0.071 C 
HETATM   22  C   UNK     0       6.098   1.685  28.414  0.00  0.00     0.037 C 
HETATM   23  C   UNK     0       4.753   2.151  29.007  0.00  0.00     0.126 C 
HETATM   24  C   UNK     0       4.633   1.916  30.518  0.00  0.00     0.068 C 
HETATM   25  O   UNK     0       4.603   3.537  28.733  0.00  0.00    -0.376 OA
HETATM   26  C   UNK     0       4.820   4.254  29.932  0.00  0.00     0.150 C 
HETATM   27  C   UNK     0       3.762   5.380  30.060  0.00  0.00     0.039 C 
HETATM   28  C   UNK     0       4.753   3.274  31.046  0.00  0.00    -0.058 C 
HETATM   29  C   UNK     0       4.372   6.792  29.970  0.00  0.00     0.035 C 
HETATM   30  C   UNK     0       4.751   7.207  28.535  0.00  0.00     0.123 C 
HETATM   31  O   UNK     0       5.747   6.329  28.030  0.00  0.00    -0.376 OA
HETATM   32  C   UNK     0       5.270   8.666  28.533  0.00  0.00     0.040 C 
HETATM   33  C   UNK     0       5.729   9.081  27.123  0.00  0.00     0.014 C 
HETATM   34  C   UNK     0       6.645   7.992  26.580  0.00  0.00    -0.057 C 
HETATM   35  C   UNK     0       6.022   6.601  26.668  0.00  0.00     0.153 C 
HETATM   36  C   UNK     0       6.853   5.424  26.106  0.00  0.00     0.069 C 
HETATM   37  C   UNK     0       7.913   8.222  26.169  0.00  0.00     0.017 C 
HETATM   38  O   UNK     0       7.700   2.344  23.551  0.00  0.00    -0.298 OA
HETATM   39  O   UNK     0       5.133   0.045  24.091  0.00  0.00    -0.375 OA
HETATM   40  O   UNK     0       6.154  -1.991  27.645  0.00  0.00    -0.344 OA
HETATM   41  C   UNK     0       4.913   3.568  32.341  0.00  0.00     0.017 C 
HETATM   42  C   UNK     0       5.494   5.106  22.626  0.00  0.00     0.156 C 
HETATM   43  C   UNK     0       6.091   6.516  22.778  0.00  0.00     0.153 C 
HETATM   44  O   UNK     0       6.934   6.532  23.919  0.00  0.00    -0.377 OA
HETATM   45  C   UNK     0       6.328  10.497  27.147  0.00  0.00     0.015 C 
ENDROOT
BRANCH  42  46
HETATM   46  O   UNK     0       4.156   5.104  22.157  0.00  0.00    -0.388 OA
HETATM   47  C   UNK     0       3.979   4.078  21.206  0.00  0.00     0.202 C 
ENDBRANCH  42  46
BRANCH  43  48
HETATM   48  C   UNK     0       5.014   7.619  22.909  0.00  0.00     0.068 C 
BRANCH  48  49
HETATM   49  C   UNK     0       4.515   8.188  21.562  0.00  0.00     0.146 C 
BRANCH  49  50
HETATM   50  C   UNK     0       3.009   8.517  21.581  0.00  0.00     0.261 C 
BRANCH  50  51
HETATM   51  N   UNK     0       2.220   7.289  21.581  0.00  0.00    -0.077 N 
HETATM   52  HN3 UNK     0       2.294   6.789  20.695  1.00  0.00     0.274 HD
HETATM   53  HN2 UNK     0       2.624   6.578  22.190  1.00  0.00     0.274 HD
HETATM   54  HN1 UNK     0       1.249   7.490  21.823  1.00  0.00     0.274 HD
ENDBRANCH  50  51
ENDBRANCH  49  50
BRANCH  49  55
HETATM   55  O   UNK     0       5.260   9.331  21.224  0.00  0.00    -0.394 OA
HETATM   56  HO  UNK     0       5.550   9.269  20.322  1.00  0.00     0.210 HD
ENDBRANCH  49  55
ENDBRANCH  48  49
ENDBRANCH  43  48
TORSDOF 6
ENDMDL
MODEL 3
REMARK VINA RESULT:      -7.2     43.541     48.784
REMARK  6 active torsions:
REMARK  status: ('A' for Active; 'I' for Inactive)
REMARK    1  A    between atoms: C_42  and  O_45 
REMARK    2  A    between atoms: C_43  and  C_46 
REMARK    3  A    between atoms: C_46  and  C_47 
REMARK    4  A    between atoms: C_47  and  C_48 
REMARK    5  A    between atoms: C_47  and  O_54 
REMARK    6  A    between atoms: C_48  and  N_49 
ROOT
HETATM    1  C   UNK     0       5.953   2.987  28.888  0.00  0.00     0.131 C 
HETATM    2  C   UNK     0       4.874   3.940  28.365  0.00  0.00     0.053 C 
HETATM    3  C   UNK     0       5.326   4.954  27.289  0.00  0.00     0.088 C 
HETATM    4  C   UNK     0       6.293   6.022  27.753  0.00  0.00     0.130 C 
HETATM    5  C   UNK     0       5.887   7.474  27.716  0.00  0.00     0.110 C 
HETATM    6  C   UNK     0       6.163   8.121  26.343  0.00  0.00     0.129 C 
HETATM    7  C   UNK     0       7.629   8.593  26.227  0.00  0.00     0.035 C 
HETATM    8  C   UNK     0       7.881   9.187  24.836  0.00  0.00     0.037 C 
HETATM    9  C   UNK     0       7.439   8.193  23.759  0.00  0.00     0.153 C 
HETATM   10  C   UNK     0       5.975   7.793  24.038  0.00  0.00     0.182 C 
HETATM   11  C   UNK     0       5.520   6.808  22.963  0.00  0.00     0.188 C 
HETATM   12  C   UNK     0       5.605   7.558  21.610  0.00  0.00     0.185 C 
HETATM   13  C   UNK     0       6.995   8.104  21.372  0.00  0.00     0.185 C 
HETATM   14  O   UNK     0       7.627   8.777  22.470  0.00  0.00    -0.373 OA
HETATM   15  O   UNK     0       6.191   5.539  23.130  0.00  0.00    -0.344 OA
HETATM   16  C   UNK     0       7.187   5.105  22.191  0.00  0.00     0.168 C 
HETATM   17  C   UNK     0       6.573   4.751  20.843  0.00  0.00     0.103 C 
HETATM   18  O   UNK     0       5.308   6.707  20.534  0.00  0.00    -0.372 OA
HETATM   19  C   UNK     0       6.533   6.096  20.191  0.00  0.00     0.159 C 
HETATM   20  C   UNK     0       7.680   6.866  20.859  0.00  0.00     0.185 C 
HETATM   21  C   UNK     0       7.952   3.892  22.786  0.00  0.00     0.071 C 
HETATM   22  C   UNK     0       7.152   2.946  23.708  0.00  0.00     0.037 C 
HETATM   23  C   UNK     0       5.882   2.304  23.113  0.00  0.00     0.126 C 
HETATM   24  C   UNK     0       6.154   1.433  21.880  0.00  0.00     0.068 C 
HETATM   25  O   UNK     0       5.270   1.512  24.122  0.00  0.00    -0.376 OA
HETATM   26  C   UNK     0       5.504   0.150  23.824  0.00  0.00     0.150 C 
HETATM   27  C   UNK     0       4.208  -0.663  24.068  0.00  0.00     0.039 C 
HETATM   28  C   UNK     0       5.967   0.084  22.415  0.00  0.00    -0.058 C 
HETATM   29  C   UNK     0       4.334  -1.660  25.238  0.00  0.00     0.035 C 
HETATM   30  C   UNK     0       4.265  -0.990  26.623  0.00  0.00     0.123 C 
HETATM   31  O   UNK     0       5.352  -0.087  26.774  0.00  0.00    -0.376 OA
HETATM   32  C   UNK     0       4.310  -2.073  27.729  0.00  0.00     0.040 C 
HETATM   33  C   UNK     0       4.321  -1.428  29.128  0.00  0.00     0.014 C 
HETATM   34  C   UNK     0       5.388  -0.341  29.142  0.00  0.00    -0.057 C 
HETATM   35  C   UNK     0       5.244   0.642  27.983  0.00  0.00     0.153 C 
HETATM   36  C   UNK     0       6.255   1.811  27.925  0.00  0.00     0.069 C 
HETATM   37  C   UNK     0       6.415  -0.317  30.023  0.00  0.00     0.017 C 
HETATM   38  O   UNK     0       7.439   5.724  28.049  0.00  0.00    -0.298 OA
HETATM   39  O   UNK     0       5.850   7.193  25.313  0.00  0.00    -0.375 OA
HETATM   40  O   UNK     0       8.148   6.107  21.943  0.00  0.00    -0.344 OA
HETATM   41  C   UNK     0       6.295  -1.037  21.763  0.00  0.00     0.017 C 
HETATM   42  C   UNK     0       4.363   4.556  29.641  0.00  0.00     0.156 C 
HETATM   43  C   UNK     0       4.528   3.397  30.638  0.00  0.00     0.153 C 
HETATM   44  O   UNK     0       5.544   2.528  30.161  0.00  0.00    -0.377 OA
HETATM   45  C   UNK     0       4.458  -2.504  30.217  0.00  0.00     0.015 C 
ENDROOT
BRANCH  42  46
HETATM   46  O   UNK     0       3.021   4.987  29.486  0.00  0.00    -0.388 OA
HETATM   47  C   UNK     0       2.895   6.331  29.891  0.00  0.00     0.202 C 
ENDBRANCH  42  46
BRANCH  43  48
HETATM   48  C   UNK     0       3.221   2.598  30.859  0.00  0.00     0.068 C 
BRANCH  48  49
HETATM   49  C   UNK     0       2.646   2.698  32.289  0.00  0.00     0.146 C 
BRANCH  49  50
HETATM   50  C   UNK     0       3.049   4.006  32.999  0.00  0.00     0.261 C 
BRANCH  50  51
HETATM   51  N   UNK     0       1.893   4.887  33.135  0.00  0.00    -0.077 N 
HETATM   52  HN3 UNK     0       1.870   5.598  32.404  1.00  0.00     0.274 HD
HETATM   53  HN2 UNK     0       1.022   4.408  32.908  1.00  0.00     0.274 HD
HETATM   54  HN1 UNK     0       1.869   5.300  34.068  1.00  0.00     0.274 HD
ENDBRANCH  50  51
ENDBRANCH  49  50
BRANCH  49  55
HETATM   55  O   UNK     0       1.246   2.577  32.246  0.00  0.00    -0.394 OA
HETATM   56  HO  UNK     0       0.918   2.939  31.431  1.00  0.00     0.210 HD
ENDBRANCH  49  55
ENDBRANCH  48  49
ENDBRANCH  43  48
TORSDOF 6
ENDMDL
MODEL 4
REMARK VINA RESULT:      -7.2     29.233     33.754
REMARK  6 active torsions:
REMARK  status: ('A' for Active; 'I' for Inactive)
REMARK    1  A    between atoms: C_42  and  O_45 
REMARK    2  A    between atoms: C_43  and  C_46 
REMARK    3  A    between atoms: C_46  and  C_47 
REMARK    4  A    between atoms: C_47  and  C_48 
REMARK    5  A    between atoms: C_47  and  O_54 
REMARK    6  A    between atoms: C_48  and  N_49 
ROOT
HETATM    1  C   UNK     0     -12.522  16.005  -2.837  0.00  0.00     0.131 C 
HETATM    2  C   UNK     0     -13.733  15.771  -1.929  0.00  0.00     0.053 C 
HETATM    3  C   UNK     0     -13.756  16.572  -0.607  0.00  0.00     0.088 C 
HETATM    4  C   UNK     0     -12.698  16.199   0.410  0.00  0.00     0.130 C 
HETATM    5  C   UNK     0     -13.106  15.636   1.749  0.00  0.00     0.110 C 
HETATM    6  C   UNK     0     -13.403  16.744   2.780  0.00  0.00     0.129 C 
HETATM    7  C   UNK     0     -12.108  17.247   3.456  0.00  0.00     0.035 C 
HETATM    8  C   UNK     0     -12.433  18.379   4.439  0.00  0.00     0.037 C 
HETATM    9  C   UNK     0     -13.252  19.462   3.731  0.00  0.00     0.153 C 
HETATM   10  C   UNK     0     -14.481  18.795   3.079  0.00  0.00     0.182 C 
HETATM   11  C   UNK     0     -15.310  19.869   2.378  0.00  0.00     0.188 C 
HETATM   12  C   UNK     0     -15.776  20.857   3.476  0.00  0.00     0.185 C 
HETATM   13  C   UNK     0     -14.600  21.416   4.245  0.00  0.00     0.185 C 
HETATM   14  O   UNK     0     -13.595  20.482   4.667  0.00  0.00    -0.373 OA
HETATM   15  O   UNK     0     -14.610  20.360   1.213  0.00  0.00    -0.344 OA
HETATM   16  C   UNK     0     -14.060  21.687   1.190  0.00  0.00     0.168 C 
HETATM   17  C   UNK     0     -15.151  22.748   1.144  0.00  0.00     0.103 C 
HETATM   18  O   UNK     0     -16.462  21.950   2.924  0.00  0.00    -0.372 OA
HETATM   19  C   UNK     0     -15.463  22.893   2.598  0.00  0.00     0.159 C 
HETATM   20  C   UNK     0     -14.157  22.498   3.299  0.00  0.00     0.185 C 
HETATM   21  C   UNK     0     -13.106  21.820  -0.027  0.00  0.00     0.071 C 
HETATM   22  C   UNK     0     -13.465  21.004  -1.289  0.00  0.00     0.037 C 
HETATM   23  C   UNK     0     -14.857  21.249  -1.904  0.00  0.00     0.126 C 
HETATM   24  C   UNK     0     -15.083  22.697  -2.357  0.00  0.00     0.068 C 
HETATM   25  O   UNK     0     -15.011  20.379  -3.017  0.00  0.00    -0.376 OA
HETATM   26  C   UNK     0     -14.895  21.144  -4.201  0.00  0.00     0.150 C 
HETATM   27  C   UNK     0     -15.979  20.696  -5.214  0.00  0.00     0.039 C 
HETATM   28  C   UNK     0     -15.025  22.571  -3.813  0.00  0.00    -0.058 C 
HETATM   29  C   UNK     0     -15.388  20.023  -6.468  0.00  0.00     0.035 C 
HETATM   30  C   UNK     0     -14.914  18.578  -6.223  0.00  0.00     0.123 C 
HETATM   31  O   UNK     0     -13.868  18.574  -5.260  0.00  0.00    -0.376 OA
HETATM   32  C   UNK     0     -14.421  17.956  -7.552  0.00  0.00     0.040 C 
HETATM   33  C   UNK     0     -13.868  16.538  -7.323  0.00  0.00     0.014 C 
HETATM   34  C   UNK     0     -12.896  16.589  -6.150  0.00  0.00    -0.057 C 
HETATM   35  C   UNK     0     -13.499  17.251  -4.914  0.00  0.00     0.153 C 
HETATM   36  C   UNK     0     -12.609  17.321  -3.652  0.00  0.00     0.069 C 
HETATM   37  C   UNK     0     -11.605  16.193  -6.235  0.00  0.00     0.017 C 
HETATM   38  O   UNK     0     -11.525  16.456   0.197  0.00  0.00    -0.298 OA
HETATM   39  O   UNK     0     -14.084  17.814   2.139  0.00  0.00    -0.375 OA
HETATM   40  O   UNK     0     -13.288  21.955   2.340  0.00  0.00    -0.344 OA
HETATM   41  C   UNK     0     -14.965  23.607  -4.657  0.00  0.00     0.017 C 
HETATM   42  C   UNK     0     -13.706  14.274  -1.761  0.00  0.00     0.156 C 
HETATM   43  C   UNK     0     -13.146  13.816  -3.119  0.00  0.00     0.153 C 
HETATM   44  O   UNK     0     -12.389  14.878  -3.679  0.00  0.00    -0.377 OA
HETATM   45  C   UNK     0     -13.297  15.963  -8.629  0.00  0.00     0.015 C 
ENDROOT
BRANCH  42  46
HETATM   46  O   UNK     0     -15.006  13.779  -1.487  0.00  0.00    -0.388 OA
HETATM   47  C   UNK     0     -15.010  13.083  -0.261  0.00  0.00     0.202 C 
ENDBRANCH  42  46
BRANCH  43  48
HETATM   48  C   UNK     0     -14.249  13.381  -4.113  0.00  0.00     0.068 C 
BRANCH  48  49
HETATM   49  C   UNK     0     -14.535  11.863  -4.126  0.00  0.00     0.146 C 
BRANCH  49  50
HETATM   50  C   UNK     0     -13.370  11.037  -3.544  0.00  0.00     0.261 C 
BRANCH  50  51
HETATM   51  N   UNK     0     -13.317   9.720  -4.171  0.00  0.00    -0.077 N 
HETATM   52  HN3 UNK     0     -13.979   9.640  -4.943  1.00  0.00     0.274 HD
HETATM   53  HN2 UNK     0     -12.454   9.584  -4.696  1.00  0.00     0.274 HD
HETATM   54  HN1 UNK     0     -13.457   8.988  -3.474  1.00  0.00     0.274 HD
ENDBRANCH  50  51
ENDBRANCH  49  50
BRANCH  49  55
HETATM   55  O   UNK     0     -15.721  11.598  -3.419  0.00  0.00    -0.394 OA
HETATM   56  HO  UNK     0     -15.514  11.354  -2.525  1.00  0.00     0.210 HD
ENDBRANCH  49  55
ENDBRANCH  48  49
ENDBRANCH  43  48
TORSDOF 6
ENDMDL
MODEL 5
REMARK VINA RESULT:      -7.1     29.873     33.868
REMARK  6 active torsions:
REMARK  status: ('A' for Active; 'I' for Inactive)
REMARK    1  A    between atoms: C_42  and  O_45 
REMARK    2  A    between atoms: C_43  and  C_46 
REMARK    3  A    between atoms: C_46  and  C_47 
REMARK    4  A    between atoms: C_47  and  C_48 
REMARK    5  A    between atoms: C_47  and  O_54 
REMARK    6  A    between atoms: C_48  and  N_49 
ROOT
HETATM    1  C   UNK     0      14.456  13.287  10.044  0.00  0.00     0.131 C 
HETATM    2  C   UNK     0      12.937  13.227  10.226  0.00  0.00     0.053 C 
HETATM    3  C   UNK     0      12.248  14.553  10.624  0.00  0.00     0.088 C 
HETATM    4  C   UNK     0      12.571  15.077  12.006  0.00  0.00     0.130 C 
HETATM    5  C   UNK     0      11.478  15.202  13.039  0.00  0.00     0.110 C 
HETATM    6  C   UNK     0      10.731  16.547  12.936  0.00  0.00     0.129 C 
HETATM    7  C   UNK     0      11.483  17.669  13.687  0.00  0.00     0.035 C 
HETATM    8  C   UNK     0      10.738  19.000  13.524  0.00  0.00     0.037 C 
HETATM    9  C   UNK     0      10.487  19.277  12.040  0.00  0.00     0.153 C 
HETATM   10  C   UNK     0       9.769  18.054  11.431  0.00  0.00     0.182 C 
HETATM   11  C   UNK     0       9.505  18.323   9.952  0.00  0.00     0.188 C 
HETATM   12  C   UNK     0       8.572  19.559   9.886  0.00  0.00     0.185 C 
HETATM   13  C   UNK     0       9.177  20.741  10.611  0.00  0.00     0.185 C 
HETATM   14  O   UNK     0       9.747  20.489  11.903  0.00  0.00    -0.373 OA
HETATM   15  O   UNK     0      10.745  18.313   9.211  0.00  0.00    -0.344 OA
HETATM   16  C   UNK     0      11.289  19.528   8.670  0.00  0.00     0.168 C 
HETATM   17  C   UNK     0      10.451  20.052   7.512  0.00  0.00     0.103 C 
HETATM   18  O   UNK     0       8.349  19.962   8.560  0.00  0.00    -0.372 OA
HETATM   19  C   UNK     0       9.413  20.835   8.250  0.00  0.00     0.159 C 
HETATM   20  C   UNK     0      10.115  21.249   9.550  0.00  0.00     0.185 C 
HETATM   21  C   UNK     0      12.753  19.273   8.223  0.00  0.00     0.071 C 
HETATM   22  C   UNK     0      13.089  17.859   7.699  0.00  0.00     0.037 C 
HETATM   23  C   UNK     0      12.261  17.345   6.503  0.00  0.00     0.126 C 
HETATM   24  C   UNK     0      12.390  18.216   5.247  0.00  0.00     0.068 C 
HETATM   25  O   UNK     0      12.686  16.023   6.204  0.00  0.00    -0.376 OA
HETATM   26  C   UNK     0      13.460  16.059   5.022  0.00  0.00     0.150 C 
HETATM   27  C   UNK     0      13.070  14.867   4.112  0.00  0.00     0.039 C 
HETATM   28  C   UNK     0      13.215  17.376   4.380  0.00  0.00    -0.058 C 
HETATM   29  C   UNK     0      14.207  13.839   3.947  0.00  0.00     0.035 C 
HETATM   30  C   UNK     0      14.399  12.934   5.178  0.00  0.00     0.123 C 
HETATM   31  O   UNK     0      14.761  13.725   6.302  0.00  0.00    -0.376 OA
HETATM   32  C   UNK     0      15.497  11.882   4.887  0.00  0.00     0.040 C 
HETATM   33  C   UNK     0      15.766  11.012   6.129  0.00  0.00     0.014 C 
HETATM   34  C   UNK     0      15.955  11.936   7.326  0.00  0.00    -0.057 C 
HETATM   35  C   UNK     0      14.817  12.940   7.480  0.00  0.00     0.153 C 
HETATM   36  C   UNK     0      14.890  13.902   8.688  0.00  0.00     0.069 C 
HETATM   37  C   UNK     0      17.066  11.935   8.098  0.00  0.00     0.017 C 
HETATM   38  O   UNK     0      13.686  15.505  12.255  0.00  0.00    -0.298 OA
HETATM   39  O   UNK     0      10.558  16.887  11.567  0.00  0.00    -0.375 OA
HETATM   40  O   UNK     0      11.333  20.558   9.632  0.00  0.00    -0.344 OA
HETATM   41  C   UNK     0      13.773  17.791   3.238  0.00  0.00     0.017 C 
HETATM   42  C   UNK     0      12.792  12.113  11.230  0.00  0.00     0.156 C 
HETATM   43  C   UNK     0      13.970  11.198  10.855  0.00  0.00     0.153 C 
HETATM   44  O   UNK     0      14.963  11.978  10.208  0.00  0.00    -0.377 OA
HETATM   45  C   UNK     0      16.919  10.032   5.862  0.00  0.00     0.015 C 
ENDROOT
BRANCH  42  46
HETATM   46  O   UNK     0      11.525  11.489  11.104  0.00  0.00    -0.388 OA
HETATM   47  C   UNK     0      10.896  11.414  12.363  0.00  0.00     0.202 C 
ENDBRANCH  42  46
BRANCH  43  48
HETATM   48  C   UNK     0      13.555  10.020   9.942  0.00  0.00     0.068 C 
BRANCH  48  49
HETATM   49  C   UNK     0      13.676   8.628  10.601  0.00  0.00     0.146 C 
BRANCH  49  50
HETATM   50  C   UNK     0      12.314   7.915  10.731  0.00  0.00     0.261 C 
BRANCH  50  51
HETATM   51  N   UNK     0      11.283   8.653  10.008  0.00  0.00    -0.077 N 
HETATM   52  HN3 UNK     0      10.381   8.608  10.482  1.00  0.00     0.274 HD
HETATM   53  HN2 UNK     0      11.431   9.660  10.059  1.00  0.00     0.274 HD
HETATM   54  HN1 UNK     0      11.222   8.326   9.044  1.00  0.00     0.274 HD
ENDBRANCH  50  51
ENDBRANCH  49  50
BRANCH  49  55
HETATM   55  O   UNK     0      14.574   7.833   9.868  0.00  0.00    -0.394 OA
HETATM   56  HO  UNK     0      15.409   8.280   9.792  1.00  0.00     0.210 HD
ENDBRANCH  49  55
ENDBRANCH  48  49
ENDBRANCH  43  48
TORSDOF 6
ENDMDL
MODEL 6
REMARK VINA RESULT:      -7.0     25.088     30.769
REMARK  6 active torsions:
REMARK  status: ('A' for Active; 'I' for Inactive)
REMARK    1  A    between atoms: C_42  and  O_45 
REMARK    2  A    between atoms: C_43  and  C_46 
REMARK    3  A    between atoms: C_46  and  C_47 
REMARK    4  A    between atoms: C_47  and  C_48 
REMARK    5  A    between atoms: C_47  and  O_54 
REMARK    6  A    between atoms: C_48  and  N_49 
ROOT
HETATM    1  C   UNK     0      14.769   2.894   8.932  0.00  0.00     0.131 C 
HETATM    2  C   UNK     0      13.628   2.211   8.173  0.00  0.00     0.053 C 
HETATM    3  C   UNK     0      13.610   2.418   6.641  0.00  0.00     0.088 C 
HETATM    4  C   UNK     0      13.318   3.826   6.169  0.00  0.00     0.130 C 
HETATM    5  C   UNK     0      12.079   4.104   5.353  0.00  0.00     0.110 C 
HETATM    6  C   UNK     0      12.311   3.874   3.845  0.00  0.00     0.129 C 
HETATM    7  C   UNK     0      12.953   5.111   3.178  0.00  0.00     0.035 C 
HETATM    8  C   UNK     0      13.212   4.832   1.693  0.00  0.00     0.037 C 
HETATM    9  C   UNK     0      14.009   3.533   1.540  0.00  0.00     0.153 C 
HETATM   10  C   UNK     0      13.260   2.412   2.290  0.00  0.00     0.182 C 
HETATM   11  C   UNK     0      14.042   1.109   2.136  0.00  0.00     0.188 C 
HETATM   12  C   UNK     0      14.076   0.788   0.621  0.00  0.00     0.185 C 
HETATM   13  C   UNK     0      14.663   1.936  -0.169  0.00  0.00     0.185 C 
HETATM   14  O   UNK     0      14.198   3.254   0.154  0.00  0.00    -0.373 OA
HETATM   15  O   UNK     0      15.274   1.172   2.890  0.00  0.00    -0.344 OA
HETATM   16  C   UNK     0      16.542   1.256   2.221  0.00  0.00     0.168 C 
HETATM   17  C   UNK     0      16.890  -0.044   1.509  0.00  0.00     0.103 C 
HETATM   18  O   UNK     0      14.866  -0.341   0.354  0.00  0.00    -0.372 OA
HETATM   19  C   UNK     0      16.181   0.149   0.208  0.00  0.00     0.159 C 
HETATM   20  C   UNK     0      16.130   1.673   0.036  0.00  0.00     0.185 C 
HETATM   21  C   UNK     0      17.637   1.633   3.254  0.00  0.00     0.071 C 
HETATM   22  C   UNK     0      17.446   1.114   4.696  0.00  0.00     0.037 C 
HETATM   23  C   UNK     0      17.304  -0.412   4.873  0.00  0.00     0.126 C 
HETATM   24  C   UNK     0      18.523  -1.203   4.383  0.00  0.00     0.068 C 
HETATM   25  O   UNK     0      17.093  -0.681   6.253  0.00  0.00    -0.376 OA
HETATM   26  C   UNK     0      18.283  -1.223   6.789  0.00  0.00     0.150 C 
HETATM   27  C   UNK     0      17.936  -2.409   7.725  0.00  0.00     0.039 C 
HETATM   28  C   UNK     0      19.135  -1.628   5.641  0.00  0.00    -0.058 C 
HETATM   29  C   UNK     0      18.271  -2.127   9.203  0.00  0.00     0.035 C 
HETATM   30  C   UNK     0      17.262  -1.188   9.892  0.00  0.00     0.123 C 
HETATM   31  O   UNK     0      17.272   0.080   9.250  0.00  0.00    -0.376 OA
HETATM   32  C   UNK     0      17.628  -1.035  11.388  0.00  0.00     0.040 C 
HETATM   33  C   UNK     0      16.683  -0.040  12.085  0.00  0.00     0.014 C 
HETATM   34  C   UNK     0      16.603   1.220  11.232  0.00  0.00    -0.057 C 
HETATM   35  C   UNK     0      16.262   0.923   9.775  0.00  0.00     0.153 C 
HETATM   36  C   UNK     0      16.118   2.137   8.828  0.00  0.00     0.069 C 
HETATM   37  C   UNK     0      16.912   2.453  11.696  0.00  0.00     0.017 C 
HETATM   38  O   UNK     0      14.134   4.714   6.346  0.00  0.00    -0.298 OA
HETATM   39  O   UNK     0      13.127   2.725   3.664  0.00  0.00    -0.375 OA
HETATM   40  O   UNK     0      16.550   2.266   1.236  0.00  0.00    -0.344 OA
HETATM   41  C   UNK     0      20.348  -2.182   5.740  0.00  0.00     0.017 C 
HETATM   42  C   UNK     0      12.418   2.739   8.897  0.00  0.00     0.156 C 
HETATM   43  C   UNK     0      12.953   2.894  10.331  0.00  0.00     0.153 C 
HETATM   44  O   UNK     0      14.362   3.051  10.276  0.00  0.00    -0.377 OA
HETATM   45  C   UNK     0      17.109   0.176  13.546  0.00  0.00     0.015 C 
ENDROOT
BRANCH  42  46
HETATM   46  O   UNK     0      11.334   1.831   8.790  0.00  0.00    -0.388 OA
HETATM   47  C   UNK     0      10.272   2.428   8.081  0.00  0.00     0.202 C 
ENDBRANCH  42  46
BRANCH  43  48
HETATM   48  C   UNK     0      12.597   1.695  11.243  0.00  0.00     0.068 C 
BRANCH  48  49
HETATM   49  C   UNK     0      13.215   1.763  12.658  0.00  0.00     0.146 C 
BRANCH  49  50
HETATM   50  C   UNK     0      12.296   2.476  13.670  0.00  0.00     0.261 C 
BRANCH  50  51
HETATM   51  N   UNK     0      10.894   2.251  13.331  0.00  0.00    -0.077 N 
HETATM   52  HN3 UNK     0      10.741   1.318  12.948  1.00  0.00     0.274 HD
HETATM   53  HN2 UNK     0      10.311   2.171  14.163  1.00  0.00     0.274 HD
HETATM   54  HN1 UNK     0      10.560   2.979  12.700  1.00  0.00     0.274 HD
ENDBRANCH  50  51
ENDBRANCH  49  50
BRANCH  49  55
HETATM   55  O   UNK     0      13.520   0.466  13.104  0.00  0.00    -0.394 OA
HETATM   56  HO  UNK     0      14.453   0.309  13.020  1.00  0.00     0.210 HD
ENDBRANCH  49  55
ENDBRANCH  48  49
ENDBRANCH  43  48
TORSDOF 6
ENDMDL
MODEL 7
REMARK VINA RESULT:      -6.9     26.066     31.179
REMARK  6 active torsions:
REMARK  status: ('A' for Active; 'I' for Inactive)
REMARK    1  A    between atoms: C_42  and  O_45 
REMARK    2  A    between atoms: C_43  and  C_46 
REMARK    3  A    between atoms: C_46  and  C_47 
REMARK    4  A    between atoms: C_47  and  C_48 
REMARK    5  A    between atoms: C_47  and  O_54 
REMARK    6  A    between atoms: C_48  and  N_49 
ROOT
HETATM    1  C   UNK     0      15.648   1.620   4.928  0.00  0.00     0.131 C 
HETATM    2  C   UNK     0      15.139   0.335   5.586  0.00  0.00     0.053 C 
HETATM    3  C   UNK     0      15.648   0.057   7.020  0.00  0.00     0.088 C 
HETATM    4  C   UNK     0      17.124  -0.253   7.147  0.00  0.00     0.130 C 
HETATM    5  C   UNK     0      17.570  -1.602   7.654  0.00  0.00     0.110 C 
HETATM    6  C   UNK     0      17.644  -1.650   9.195  0.00  0.00     0.129 C 
HETATM    7  C   UNK     0      18.985  -1.082   9.713  0.00  0.00     0.035 C 
HETATM    8  C   UNK     0      19.006  -1.100  11.246  0.00  0.00     0.037 C 
HETATM    9  C   UNK     0      17.758  -0.400  11.791  0.00  0.00     0.153 C 
HETATM   10  C   UNK     0      16.515  -1.053  11.151  0.00  0.00     0.182 C 
HETATM   11  C   UNK     0      15.263  -0.368  11.696  0.00  0.00     0.188 C 
HETATM   12  C   UNK     0      15.252  -0.616  13.225  0.00  0.00     0.185 C 
HETATM   13  C   UNK     0      16.530  -0.126  13.869  0.00  0.00     0.185 C 
HETATM   14  O   UNK     0      17.760  -0.470  13.215  0.00  0.00    -0.373 OA
HETATM   15  O   UNK     0      15.165   0.978  11.180  0.00  0.00    -0.344 OA
HETATM   16  C   UNK     0      15.372   2.112  12.038  0.00  0.00     0.168 C 
HETATM   17  C   UNK     0      14.237   2.273  13.041  0.00  0.00     0.103 C 
HETATM   18  O   UNK     0      14.193   0.065  13.846  0.00  0.00    -0.372 OA
HETATM   19  C   UNK     0      14.692   1.355  14.129  0.00  0.00     0.159 C 
HETATM   20  C   UNK     0      16.220   1.341  13.988  0.00  0.00     0.185 C 
HETATM   21  C   UNK     0      15.526   3.387  11.166  0.00  0.00     0.071 C 
HETATM   22  C   UNK     0      14.730   3.429   9.843  0.00  0.00     0.037 C 
HETATM   23  C   UNK     0      13.201   3.255   9.945  0.00  0.00     0.126 C 
HETATM   24  C   UNK     0      12.515   4.333  10.793  0.00  0.00     0.068 C 
HETATM   25  O   UNK     0      12.663   3.278   8.630  0.00  0.00    -0.376 OA
HETATM   26  C   UNK     0      12.016   4.520   8.434  0.00  0.00     0.150 C 
HETATM   27  C   UNK     0      10.670   4.291   7.701  0.00  0.00     0.039 C 
HETATM   28  C   UNK     0      11.842   5.137   9.774  0.00  0.00    -0.058 C 
HETATM   29  C   UNK     0      10.648   4.893   6.282  0.00  0.00     0.035 C 
HETATM   30  C   UNK     0      11.437   4.063   5.252  0.00  0.00     0.123 C 
HETATM   31  O   UNK     0      12.808   4.015   5.624  0.00  0.00    -0.376 OA
HETATM   32  C   UNK     0      11.285   4.693   3.846  0.00  0.00     0.040 C 
HETATM   33  C   UNK     0      12.128   3.929   2.808  0.00  0.00     0.014 C 
HETATM   34  C   UNK     0      13.534   3.755   3.370  0.00  0.00    -0.057 C 
HETATM   35  C   UNK     0      13.537   3.151   4.771  0.00  0.00     0.153 C 
HETATM   36  C   UNK     0      14.917   2.895   5.421  0.00  0.00     0.069 C 
HETATM   37  C   UNK     0      14.647   4.194   2.739  0.00  0.00     0.017 C 
HETATM   38  O   UNK     0      17.953   0.620   6.951  0.00  0.00    -0.298 OA
HETATM   39  O   UNK     0      16.548  -0.929   9.742  0.00  0.00    -0.375 OA
HETATM   40  O   UNK     0      16.558   1.990  12.791  0.00  0.00    -0.344 OA
HETATM   41  C   UNK     0      11.271   6.324  10.006  0.00  0.00     0.017 C 
HETATM   42  C   UNK     0      15.521  -0.706   4.566  0.00  0.00     0.156 C 
HETATM   43  C   UNK     0      15.382   0.080   3.251  0.00  0.00     0.153 C 
HETATM   44  O   UNK     0      15.536   1.463   3.528  0.00  0.00    -0.377 OA
HETATM   45  C   UNK     0      12.045   4.614   1.435  0.00  0.00     0.015 C 
ENDROOT
BRANCH  42  46
HETATM   46  O   UNK     0      14.661  -1.829   4.651  0.00  0.00    -0.388 OA
HETATM   47  C   UNK     0      13.537  -1.519   5.443  0.00  0.00     0.202 C 
ENDBRANCH  42  46
BRANCH  43  48
HETATM   48  C   UNK     0      14.028  -0.162   2.542  0.00  0.00     0.068 C 
BRANCH  48  49
HETATM   49  C   UNK     0      13.981   0.317   1.074  0.00  0.00     0.146 C 
BRANCH  49  50
HETATM   50  C   UNK     0      12.625   0.949   0.700  0.00  0.00     0.261 C 
BRANCH  50  51
HETATM   51  N   UNK     0      11.644   0.708   1.754  0.00  0.00    -0.077 N 
HETATM   52  HN3 UNK     0      11.879  -0.115   2.311  1.00  0.00     0.274 HD
HETATM   53  HN2 UNK     0      11.700   1.410   2.492  1.00  0.00     0.274 HD
HETATM   54  HN1 UNK     0      10.706   0.643   1.359  1.00  0.00     0.274 HD
ENDBRANCH  50  51
ENDBRANCH  49  50
BRANCH  49  55
HETATM   55  O   UNK     0      15.025   1.228   0.839  0.00  0.00    -0.394 OA
HETATM   56  HO  UNK     0      15.515   1.367   1.641  1.00  0.00     0.210 HD
ENDBRANCH  49  55
ENDBRANCH  48  49
ENDBRANCH  43  48
TORSDOF 6
ENDMDL
MODEL 8
REMARK VINA RESULT:      -6.8      2.501      7.937
REMARK  6 active torsions:
REMARK  status: ('A' for Active; 'I' for Inactive)
REMARK    1  A    between atoms: C_42  and  O_45 
REMARK    2  A    between atoms: C_43  and  C_46 
REMARK    3  A    between atoms: C_46  and  C_47 
REMARK    4  A    between atoms: C_47  and  C_48 
REMARK    5  A    between atoms: C_47  and  O_54 
REMARK    6  A    between atoms: C_48  and  N_49 
ROOT
HETATM    1  C   UNK     0       9.220   3.793 -20.693  0.00  0.00     0.131 C 
HETATM    2  C   UNK     0       7.736   4.027 -20.989  0.00  0.00     0.053 C 
HETATM    3  C   UNK     0       7.405   4.619 -22.379  0.00  0.00     0.088 C 
HETATM    4  C   UNK     0       7.859   6.043 -22.615  0.00  0.00     0.130 C 
HETATM    5  C   UNK     0       6.839   7.126 -22.868  0.00  0.00     0.110 C 
HETATM    6  C   UNK     0       6.453   7.226 -24.359  0.00  0.00     0.129 C 
HETATM    7  C   UNK     0       7.468   8.084 -25.148  0.00  0.00     0.035 C 
HETATM    8  C   UNK     0       7.082   8.123 -26.631  0.00  0.00     0.037 C 
HETATM    9  C   UNK     0       6.898   6.698 -27.158  0.00  0.00     0.153 C 
HETATM   10  C   UNK     0       5.892   5.966 -26.245  0.00  0.00     0.182 C 
HETATM   11  C   UNK     0       5.695   4.545 -26.768  0.00  0.00     0.188 C 
HETATM   12  C   UNK     0       5.103   4.675 -28.193  0.00  0.00     0.185 C 
HETATM   13  C   UNK     0       5.990   5.522 -29.080  0.00  0.00     0.185 C 
HETATM   14  O   UNK     0       6.487   6.747 -28.523  0.00  0.00    -0.373 OA
HETATM   15  O   UNK     0       6.889   3.761 -26.549  0.00  0.00    -0.344 OA
HETATM   16  C   UNK     0       7.717   3.359 -27.651  0.00  0.00     0.168 C 
HETATM   17  C   UNK     0       7.031   2.312 -28.518  0.00  0.00     0.103 C 
HETATM   18  O   UNK     0       4.981   3.422 -28.813  0.00  0.00    -0.372 OA
HETATM   19  C   UNK     0       6.228   3.185 -29.429  0.00  0.00     0.159 C 
HETATM   20  C   UNK     0       7.019   4.498 -29.476  0.00  0.00     0.185 C 
HETATM   21  C   UNK     0       9.067   2.825 -27.103  0.00  0.00     0.071 C 
HETATM   22  C   UNK     0       9.033   2.111 -25.733  0.00  0.00     0.037 C 
HETATM   23  C   UNK     0       8.095   0.893 -25.607  0.00  0.00     0.126 C 
HETATM   24  C   UNK     0       8.431  -0.245 -26.578  0.00  0.00     0.068 C 
HETATM   25  O   UNK     0       8.171   0.410 -24.272  0.00  0.00    -0.376 OA
HETATM   26  C   UNK     0       8.922  -0.787 -24.274  0.00  0.00     0.150 C 
HETATM   27  C   UNK     0       8.239  -1.827 -23.349  0.00  0.00     0.039 C 
HETATM   28  C   UNK     0       9.013  -1.245 -25.684  0.00  0.00    -0.058 C 
HETATM   29  C   UNK     0       9.080  -2.168 -22.103  0.00  0.00     0.035 C 
HETATM   30  C   UNK     0       9.046  -1.071 -21.022  0.00  0.00     0.123 C 
HETATM   31  O   UNK     0       9.602   0.130 -21.540  0.00  0.00    -0.376 OA
HETATM   32  C   UNK     0       9.842  -1.538 -19.778  0.00  0.00     0.040 C 
HETATM   33  C   UNK     0       9.891  -0.430 -18.710  0.00  0.00     0.014 C 
HETATM   34  C   UNK     0      10.314   0.867 -19.389  0.00  0.00    -0.057 C 
HETATM   35  C   UNK     0       9.466   1.194 -20.615  0.00  0.00     0.153 C 
HETATM   36  C   UNK     0       9.786   2.512 -21.358  0.00  0.00     0.069 C 
HETATM   37  C   UNK     0      11.394   1.588 -19.009  0.00  0.00     0.017 C 
HETATM   38  O   UNK     0       9.047   6.300 -22.716  0.00  0.00    -0.298 OA
HETATM   39  O   UNK     0       6.363   5.920 -24.911  0.00  0.00    -0.375 OA
HETATM   40  O   UNK     0       8.025   4.443 -28.499  0.00  0.00    -0.344 OA
HETATM   41  C   UNK     0       9.651  -2.346 -26.097  0.00  0.00     0.017 C 
HETATM   42  C   UNK     0       7.321   4.885 -19.822  0.00  0.00     0.156 C 
HETATM   43  C   UNK     0       8.229   4.349 -18.701  0.00  0.00     0.153 C 
HETATM   44  O   UNK     0       9.383   3.768 -19.289  0.00  0.00    -0.377 OA
HETATM   45  C   UNK     0      10.759  -0.866 -17.519  0.00  0.00     0.015 C 
ENDROOT
BRANCH  42  46
HETATM   46  O   UNK     0       5.938   4.730 -19.555  0.00  0.00    -0.388 OA
HETATM   47  C   UNK     0       5.303   5.989 -19.547  0.00  0.00     0.202 C 
ENDBRANCH  42  46
BRANCH  43  48
HETATM   48  C   UNK     0       7.525   3.309 -17.797  0.00  0.00     0.068 C 
BRANCH  48  49
HETATM   49  C   UNK     0       8.042   3.275 -16.341  0.00  0.00     0.146 C 
BRANCH  49  50
HETATM   50  C   UNK     0       8.823   1.985 -16.020  0.00  0.00     0.261 C 
BRANCH  50  51
HETATM   51  N   UNK     0       7.921   0.838 -15.994  0.00  0.00    -0.077 N 
HETATM   52  HN3 UNK     0       7.050   1.050 -15.506  1.00  0.00     0.274 HD
HETATM   53  HN2 UNK     0       7.533   0.639 -16.916  1.00  0.00     0.274 HD
HETATM   54  HN1 UNK     0       8.390   0.025 -15.595  1.00  0.00     0.274 HD
ENDBRANCH  50  51
ENDBRANCH  49  50
BRANCH  49  55
HETATM   55  O   UNK     0       8.843   4.404 -16.096  0.00  0.00    -0.394 OA
HETATM   56  HO  UNK     0       9.644   4.345 -16.604  1.00  0.00     0.210 HD
ENDBRANCH  49  55
ENDBRANCH  48  49
ENDBRANCH  43  48
TORSDOF 6
ENDMDL
MODEL 9
REMARK VINA RESULT:      -6.7     22.853     26.824
REMARK  6 active torsions:
REMARK  status: ('A' for Active; 'I' for Inactive)
REMARK    1  A    between atoms: C_42  and  O_45 
REMARK    2  A    between atoms: C_43  and  C_46 
REMARK    3  A    between atoms: C_46  and  C_47 
REMARK    4  A    between atoms: C_47  and  C_48 
REMARK    5  A    between atoms: C_47  and  O_54 
REMARK    6  A    between atoms: C_48  and  N_49 
ROOT
HETATM    1  C   UNK     0     -16.176  -9.397 -22.335  0.00  0.00     0.131 C 
HETATM    2  C   UNK     0     -15.724  -8.996 -20.928  0.00  0.00     0.053 C 
HETATM    3  C   UNK     0     -15.320 -10.155 -19.988  0.00  0.00     0.088 C 
HETATM    4  C   UNK     0     -16.441 -11.077 -19.557  0.00  0.00     0.130 C 
HETATM    5  C   UNK     0     -16.819 -11.173 -18.100  0.00  0.00     0.110 C 
HETATM    6  C   UNK     0     -15.961 -12.209 -17.343  0.00  0.00     0.129 C 
HETATM    7  C   UNK     0     -16.520 -13.639 -17.518  0.00  0.00     0.035 C 
HETATM    8  C   UNK     0     -15.620 -14.647 -16.794  0.00  0.00     0.037 C 
HETATM    9  C   UNK     0     -14.168 -14.465 -17.245  0.00  0.00     0.153 C 
HETATM   10  C   UNK     0     -13.778 -12.985 -17.044  0.00  0.00     0.182 C 
HETATM   11  C   UNK     0     -12.328 -12.794 -17.483  0.00  0.00     0.188 C 
HETATM   12  C   UNK     0     -11.464 -13.689 -16.559  0.00  0.00     0.185 C 
HETATM   13  C   UNK     0     -11.920 -15.130 -16.611  0.00  0.00     0.185 C 
HETATM   14  O   UNK     0     -13.332 -15.370 -16.526  0.00  0.00    -0.373 OA
HETATM   15  O   UNK     0     -12.219 -12.917 -18.918  0.00  0.00    -0.344 OA
HETATM   16  C   UNK     0     -11.569 -14.052 -19.512  0.00  0.00     0.168 C 
HETATM   17  C   UNK     0     -10.067 -14.032 -19.267  0.00  0.00     0.103 C 
HETATM   18  O   UNK     0     -10.115 -13.671 -16.946  0.00  0.00    -0.372 OA
HETATM   19  C   UNK     0      -9.992 -14.682 -17.923  0.00  0.00     0.159 C 
HETATM   20  C   UNK     0     -11.237 -15.577 -17.874  0.00  0.00     0.185 C 
HETATM   21  C   UNK     0     -11.883 -14.079 -21.032  0.00  0.00     0.071 C 
HETATM   22  C   UNK     0     -12.065 -12.714 -21.732  0.00  0.00     0.037 C 
HETATM   23  C   UNK     0     -10.890 -11.719 -21.633  0.00  0.00     0.126 C 
HETATM   24  C   UNK     0      -9.585 -12.246 -22.241  0.00  0.00     0.068 C 
HETATM   25  O   UNK     0     -11.267 -10.520 -22.295  0.00  0.00    -0.376 OA
HETATM   26  C   UNK     0     -10.576 -10.454 -23.526  0.00  0.00     0.150 C 
HETATM   27  C   UNK     0     -10.056  -9.011 -23.751  0.00  0.00     0.039 C 
HETATM   28  C   UNK     0      -9.482 -11.456 -23.467  0.00  0.00    -0.058 C 
HETATM   29  C   UNK     0     -10.739  -8.305 -24.939  0.00  0.00     0.035 C 
HETATM   30  C   UNK     0     -12.168  -7.822 -24.627  0.00  0.00     0.123 C 
HETATM   31  O   UNK     0     -12.994  -8.937 -24.322  0.00  0.00    -0.376 OA
HETATM   32  C   UNK     0     -12.736  -7.050 -25.843  0.00  0.00     0.040 C 
HETATM   33  C   UNK     0     -14.193  -6.622 -25.589  0.00  0.00     0.014 C 
HETATM   34  C   UNK     0     -14.965  -7.836 -25.083  0.00  0.00    -0.057 C 
HETATM   35  C   UNK     0     -14.280  -8.518 -23.902  0.00  0.00     0.153 C 
HETATM   36  C   UNK     0     -15.000  -9.740 -23.285  0.00  0.00     0.069 C 
HETATM   37  C   UNK     0     -16.074  -8.317 -25.689  0.00  0.00     0.017 C 
HETATM   38  O   UNK     0     -16.963 -11.827 -20.365  0.00  0.00    -0.298 OA
HETATM   39  O   UNK     0     -14.618 -12.135 -17.801  0.00  0.00    -0.375 OA
HETATM   40  O   UNK     0     -12.046 -15.268 -18.979  0.00  0.00    -0.344 OA
HETATM   41  C   UNK     0      -8.605 -11.698 -24.448  0.00  0.00     0.017 C 
HETATM   42  C   UNK     0     -16.893  -8.174 -20.452  0.00  0.00     0.156 C 
HETATM   43  C   UNK     0     -17.377  -7.530 -21.763  0.00  0.00     0.153 C 
HETATM   44  O   UNK     0     -16.973  -8.349 -22.849  0.00  0.00    -0.377 OA
HETATM   45  C   UNK     0     -14.780  -5.938 -26.833  0.00  0.00     0.015 C 
ENDROOT
BRANCH  42  46
HETATM   46  O   UNK     0     -16.479  -7.234 -19.476  0.00  0.00    -0.388 OA
HETATM   47  C   UNK     0     -17.514  -7.016 -18.544  0.00  0.00     0.202 C 
ENDBRANCH  42  46
BRANCH  43  48
HETATM   48  C   UNK     0     -16.839  -6.093 -21.965  0.00  0.00     0.068 C 
BRANCH  48  49
HETATM   49  C   UNK     0     -17.106  -5.503 -23.369  0.00  0.00     0.146 C 
BRANCH  49  50
HETATM   50  C   UNK     0     -18.568  -5.051 -23.553  0.00  0.00     0.261 C 
BRANCH  50  51
HETATM   51  N   UNK     0     -19.105  -4.544 -22.294  0.00  0.00    -0.077 N 
HETATM   52  HN3 UNK     0     -20.045  -4.897 -22.112  1.00  0.00     0.274 HD
HETATM   53  HN2 UNK     0     -18.632  -4.951 -21.488  1.00  0.00     0.274 HD
HETATM   54  HN1 UNK     0     -19.074  -3.525 -22.279  1.00  0.00     0.274 HD
ENDBRANCH  50  51
ENDBRANCH  49  50
BRANCH  49  55
HETATM   55  O   UNK     0     -16.229  -4.430 -23.606  0.00  0.00    -0.394 OA
HETATM   56  HO  UNK     0     -16.364  -3.756 -22.950  1.00  0.00     0.210 HD
ENDBRANCH  49  55
ENDBRANCH  48  49
ENDBRANCH  43  48
TORSDOF 6
ENDMDL
