REMARK  6 active torsions:
REMARK  status: ('A' for Active; 'I' for Inactive)
REMARK    1  A    between atoms: C_42  and  O_45 
REMARK    2  A    between atoms: C_43  and  C_46 
REMARK    3  A    between atoms: C_46  and  C_47 
REMARK    4  A    between atoms: C_47  and  C_48 
REMARK    5  A    between atoms: C_47  and  O_54 
REMARK    6  A    between atoms: C_48  and  N_49 
ROOT
HETATM    1  C   UNK     0       2.375  -0.480   0.821  0.00  0.00     0.131 C 
HETATM    2  C   UNK     0       1.822  -0.965  -0.522  0.00  0.00     0.053 C 
HETATM    3  C   UNK     0       0.488  -1.745  -0.466  0.00  0.00     0.088 C 
HETATM    4  C   UNK     0       0.544  -3.102   0.202  0.00  0.00     0.130 C 
HETATM    5  C   UNK     0       0.242  -4.347  -0.595  0.00  0.00     0.110 C 
HETATM    6  C   UNK     0      -1.268  -4.663  -0.631  0.00  0.00     0.129 C 
HETATM    7  C   UNK     0      -1.712  -5.438   0.630  0.00  0.00     0.035 C 
HETATM    8  C   UNK     0      -3.223  -5.694   0.584  0.00  0.00     0.037 C 
HETATM    9  C   UNK     0      -3.966  -4.377   0.344  0.00  0.00     0.153 C 
HETATM   10  C   UNK     0      -3.382  -3.712  -0.920  0.00  0.00     0.182 C 
HETATM   11  C   UNK     0      -4.123  -2.401  -1.174  0.00  0.00     0.188 C 
HETATM   12  C   UNK     0      -5.607  -2.771  -1.420  0.00  0.00     0.185 C 
HETATM   13  C   UNK     0      -6.173  -3.564  -0.263  0.00  0.00     0.185 C 
HETATM   14  O   UNK     0      -5.366  -4.634   0.249  0.00  0.00    -0.373 OA
HETATM   15  O   UNK     0      -3.778  -1.427  -0.164  0.00  0.00    -0.344 OA
HETATM   16  C   UNK     0      -4.736  -1.025   0.828  0.00  0.00     0.168 C 
HETATM   17  C   UNK     0      -5.858  -0.193   0.222  0.00  0.00     0.103 C 
HETATM   18  O   UNK     0      -6.404  -1.624  -1.560  0.00  0.00    -0.372 OA
HETATM   19  C   UNK     0      -6.783  -1.269  -0.248  0.00  0.00     0.159 C 
HETATM   20  C   UNK     0      -6.491  -2.446   0.692  0.00  0.00     0.185 C 
HETATM   21  C   UNK     0      -4.006  -0.238   1.949  0.00  0.00     0.071 C 
HETATM   22  C   UNK     0      -2.782   0.605   1.528  0.00  0.00     0.037 C 
HETATM   23  C   UNK     0      -3.014   1.674   0.441  0.00  0.00     0.126 C 
HETATM   24  C   UNK     0      -4.044   2.739   0.836  0.00  0.00     0.068 C 
HETATM   25  O   UNK     0      -1.770   2.303   0.164  0.00  0.00    -0.376 OA
HETATM   26  C   UNK     0      -1.784   3.593   0.742  0.00  0.00     0.150 C 
HETATM   27  C   UNK     0      -1.166   4.611  -0.250  0.00  0.00     0.039 C 
HETATM   28  C   UNK     0      -3.196   3.905   1.080  0.00  0.00    -0.058 C 
HETATM   29  C   UNK     0       0.165   5.206   0.250  0.00  0.00     0.035 C 
HETATM   30  C   UNK     0       1.357   4.239   0.118  0.00  0.00     0.123 C 
HETATM   31  O   UNK     0       1.130   3.087   0.919  0.00  0.00    -0.376 OA
HETATM   32  C   UNK     0       2.659   4.951   0.559  0.00  0.00     0.040 C 
HETATM   33  C   UNK     0       3.856   3.984   0.512  0.00  0.00     0.014 C 
HETATM   34  C   UNK     0       3.460   2.700   1.231  0.00  0.00    -0.057 C 
HETATM   35  C   UNK     0       2.145   2.120   0.718  0.00  0.00     0.153 C 
HETATM   36  C   UNK     0       1.669   0.793   1.354  0.00  0.00     0.069 C 
HETATM   37  C   UNK     0       4.144   2.195   2.283  0.00  0.00     0.017 C 
HETATM   38  O   UNK     0       0.720  -3.186   1.406  0.00  0.00    -0.298 OA
HETATM   39  O   UNK     0      -2.000  -3.452  -0.761  0.00  0.00    -0.375 OA
HETATM   40  O   UNK     0      -5.349  -2.135   1.446  0.00  0.00    -0.344 OA
HETATM   41  C   UNK     0      -3.619   5.039   1.650  0.00  0.00     0.017 C 
HETATM   42  C   UNK     0       2.988  -1.745  -1.071  0.00  0.00     0.156 C 
HETATM   43  C   UNK     0       4.184  -0.962  -0.503  0.00  0.00     0.153 C 
HETATM   44  O   UNK     0       3.766  -0.280   0.669  0.00  0.00    -0.377 OA
HETATM   45  C   UNK     0       5.126   4.671   1.038  0.00  0.00     0.015 C 
ENDROOT
BRANCH  42  46
HETATM   46  O   UNK     0       2.948  -1.773  -2.488  0.00  0.00    -0.388 OA
HETATM   47  C   UNK     0       3.614  -2.919  -2.968  0.00  0.00     0.202 C 
ENDBRANCH  42  46
BRANCH  43  48
HETATM   48  C   UNK     0       4.778   0.051  -1.511  0.00  0.00     0.068 C 
BRANCH  48  49
HETATM   49  C   UNK     0       5.919   0.924  -0.942  0.00  0.00     0.146 C 
BRANCH  49  50
HETATM   50  C   UNK     0       7.167   0.098  -0.571  0.00  0.00     0.261 C 
BRANCH  50  51
HETATM   51  N   UNK     0       8.231   0.973  -0.089  0.00  0.00    -0.077 N 
HETATM   52  HN3 UNK     0       8.449   1.711  -0.759  1.00  0.00     0.274 HD
HETATM   53  HN2 UNK     0       7.919   1.559   0.685  1.00  0.00     0.274 HD
HETATM   54  HN1 UNK     0       9.057   0.427   0.156  1.00  0.00     0.274 HD
ENDBRANCH  50  51
ENDBRANCH  49  50
BRANCH  49  55
HETATM   55  O   UNK     0       6.255   1.927  -1.868  0.00  0.00    -0.394 OA
HETATM   56  HO  UNK     0       6.956   2.464  -1.518  1.00  0.00     0.210 HD
ENDBRANCH  49  55
ENDBRANCH  48  49
ENDBRANCH  43  48
TORSDOF 6
